<?xml version="1.0" encoding="UTF-8"?>

<!-- generated on 2021-10-26 11:08:17 by Eclipse SUMO netconvert Version 1.10.0
-->

<configuration >

    <input>
        <net-file value="osm.net.xml"/>
        <route-files value="osm.rou.xml"/>
        <additional-files value="osm_stops.add.xml"/>
    </input>

</configuration>
