<?xml version="1.0" encoding="UTF-8"?>

<!-- generated on 2021-10-29 10:46:43 by Eclipse SUMO netedit Version 1.10.0
<configuration xmlns:xsi="http://www.w3.org/2001/XMLSchema-instance" xsi:noNamespaceSchemaLocation="http://sumo.dlr.de/xsd/netconvertConfiguration.xsd">

    <input>
        <sumo-net-file value="C:\Users\mojtaba_sji\Documents\sumo\2021-10-28-12-59-51\osm.net.xml"/>
    </input>

    <output>
        <output-file value="C:\Users\mojtaba_sji\Documents\sumo\2021-10-28-12-59-51\osm.net.xml"/>
        <output.street-names value="true"/>
    </output>

    <processing>
        <geometry.min-radius.fix.railways value="false"/>
        <geometry.max-grade.fix value="false"/>
        <offset.disable-normalization value="true"/>
        <lefthand value="false"/>
    </processing>

    <junctions>
        <no-turnarounds value="true"/>
        <junctions.corner-detail value="5"/>
        <junctions.limit-turn-speed value="5.5"/>
        <rectangular-lane-cut value="false"/>
    </junctions>

    <pedestrian>
        <walkingareas value="false"/>
    </pedestrian>

    <netedit>
        <additional-files value="C:\Users\mojtaba_sji\Documents\sumo\2021-10-28-12-59-51\osm_stops.add.xml"/>
        <route-files value="C:\Users\mojtaba_sji\Documents\sumo\2021-10-28-12-59-51\rrrrrooouuu.rou.xml"/>
    </netedit>

    <report>
        <aggregate-warnings value="5"/>
    </report>

</configuration>
-->

<routes xmlns:xsi="http://www.w3.org/2001/XMLSchema-instance" xsi:noNamespaceSchemaLocation="http://sumo.dlr.de/xsd/routes_file.xsd">
<vType color="1,1,0" maxSpeed="7" minGap="3" length="12" sigma="0" decel="4.5" accel="2.6" id="Bus" personCapacity="8" vClass="bus"/>

	<route repeat="100" id="line1" edges="175770864#2 175770864#3 243164057#0 243164057#1 561521678#1 561521678#2 561521678#3 706134222 706134223 884679934#0 884679934#1 448461989#0 448461989#2 448461989#3 706136003#0 706136003#1 455109356#0 455109356#1 455109356#2 455109356#3 455109356#4 455109356#5 455109356#6 455109345#3 455109345#4 455109345#5 455109345#6 455109345#7 455109345#8 455109345#9 455109345#10 455109345#11 884218504 884218503#0 884218503#1 884218503#2 884218503#3 884216802 464583155#1 464583155#2 464583155#3 gneE52 532698944#0 532698944#1 532698944#2 532698944#3 532698944#4 532698944#5 532698944#6 532698944#7 493730876#0 991974232#0 991974232#1 991974232#3 991974232#4 991974232#5 991974232#6 991974232#7 991974232#8 991974232#9 991974232#10 876037154#0 876037154#1 876037154#2 876037154#3 876037154#4 876037154#5 876037154#6 876037154#7 876037154#7-AddedOffRampEdge 876037154#8 876037154#9 4295231#3 4295231#4 380240519#0 380240519#1 380240519#2 380240519#3 892680235#0 892680235#1 892680235#2 892680235#3 892680235#5 892680235#6 892680235#7 892680235#8 892680235#9 456458152#0 456458152#1 456458152#2 456458152#3 918221533#1 210304097#0 210304097#1 210304104#0 210304104#1 210304104#2 918221534#1 918221534#2 490554857#9 490554857#10 490554857#1 38682895#0 38682895#1 38682895#2 720464397#0 720464397#1 720464397#2 720464396 210304103 280006880#0 280006880#1 280006880#2 280006880#3 632174939#2 632174939#3 632174939#4 632174939#5 632174939#6 632174939#7 632174939#8 632174939#9 632174939#10 632174939#11 632174939#12 632174939#13 632174939#14 204545299 58610126#0 58610126#1 58610126#2 58610126#3 58610126#4 58610126#5 58610126#6 58610126#7 58610126#8 58610126#9 58610126#10 58610126#11 58610126#12 222758834#0 222758834#1 222758838#0 222758838#1 222758838#2 222758838#3 222758838#4 222758838#5 222758838#6 222758838#7 222758838#9 222758838#10 222758838#11 222758838#12 222758838#13 222758838#14 222758838#15 222758838#16 222758838#16-AddedOffRampEdge 222758838#17 222758838#18 222758838#19-AddedOnRampEdge 222758838#19 222758838#20 222758838#21 222758838#22 222758838#23 222758838#24 222758838#25 222758838#25-AddedOffRampEdge 222758838#26 406007751#0 406007751#1 406007750#0 406007750#1 406007750#2 406007750#3 878613731#0 878613731#1 878613731#2 878613731#3 878613731#4 878613731#5 878613731#6 878613731#7 878613731#8 878613731#10 878613731#11 878613731#12 878613731#13 878613731#14 878613731#15 878613731#16 878613731#17 878613731#18 878613731#19 878613731#20 878613731#21 878613731#22 878613731#23 878613731#24 878613731#25 878613731#26 150787986 971616617#5 971616617#6 971616617#7 971616617#7-AddedOffRampEdge 971616617#8 971616617#9 940240190#0 940240190#1 940240190#2 940240190#3 940240190#3-AddedOffRampEdge 940240190#4 940240190#5 940240190#6 940240190#7 940240190#8 940240190#8-AddedOffRampEdge 940240190#9 940240190#10 940240190#11 940240190#12 940240191#0 940240191#1-AddedOnRampEdge 940240191#1 940240191#3 940240191#5 940240191#6 940240191#7 940240191#8 940240191#9 940240191#10 940240191#11 940240191#12 940240191#13 940240191#14 940240191#15 940240191#16 878613724#0 878613724#1 878613724#2 878613724#3 878613724#4 878613724#5 878613724#6 878613724#7 878613724#8 878613724#9 878613724#10 878613724#11 878613724#12 878613724#13 878613724#14 878613724#15 878613724#16 878613724#17 878613724#18 878613724#19 878613724#20 878613724#21 878613724#22 878613724#23-AddedOnRampEdge 878613724#23 878613724#24 878613724#25 878613724#26 878613724#27 878613724#28 878613724#29 878613724#30 878613724#31 878613724#32 878613724#33 878613724#34 878613724#35 878613724#36 878613724#37 878613724#38 222758836 222758837#0 222758837#1-AddedOnRampEdge 222758837#1 222758837#2 222758837#3 222758837#4 222758837#5 204545298 4295243#0 4295243#1 4295243#2 4295243#3 4295243#4 4295243#5 4295243#6 4295243#7 4295243#8 4295243#9 4295243#10 4295243#11 4295243#13 4295243#14 632174936#0 632174936#1 210304102 210304099#0 210304099#1 210304099#2 210304099#3 210304099#4 210304099#5 210304099#6 210304099#7 210304099#8 210304099#9 210304099#10 210304099#11 490554857#5 490554857#6 490554857#7 620416785#0 620416785#1 38682897#1 38682897#2 620416782#1 620416782#2 210304098#0 210304098#1 620416779#0 620416779#1 210304100#1 210304100#2 210304100#3 456458234#0 456458234#2 456458234#3 456458234#4 456458234#5 504760639#0 504760639#1 504760639#2 504760639#3 504760639#4 504760639#5 892680233#0 892680233#1 892680233#2 892680233#3 4295231#1 4392663#0 4392663#1 4392663#2 4392663#3 4392663#4 4392663#5 4392663#6 4392663#7 4392663#8 4392663#9 4392663#10 712478977#0 712478977#1 712478977#5 712478977#6 991974233#0 991974233#1 991974233#2 991974233#3 991974233#4 991974233#5 991974233#10 991974233#11 991974233#12 991974233#13 991974233#14 712478982 712478982-AddedOffRampEdge 884216805#1 884216805#1-AddedOffRampEdge 25776902#0 25776902#1 25776902#2 25776902#3 930827959 706136002#0 706136002#1 901958880 4295393#0 4295393#1 28670043#0 28670043#1 706134221 72508540 152844696#0 152844696#1 152844696#2 175770864#0 175770864#1 " color="yellow" >
		<stop busStop="1_0" duration="20" />
		<stop busStop="2_0" duration="20" />
		<stop busStop="3_0" duration="20" />
		<stop busStop="4_0" duration="20" />
		<stop busStop="5_0" duration="20" />
		<stop busStop="6_0" duration="20" />
		<stop busStop="7_0" duration="20" />
		<stop busStop="8_0" duration="20" />
		<stop busStop="9_0" duration="20" />
		<stop busStop="10_0" duration="20" />
		<stop busStop="11_0" duration="20" />
		<stop busStop="12_0" duration="20" />
		<stop busStop="13_0" duration="20" />
		<stop busStop="14_0" duration="20" />
		<stop busStop="15_0" duration="20" />
		<stop busStop="16_0" duration="20" />
		<stop busStop="17_0" duration="20" />
		<stop busStop="18_0" duration="20" />
		<stop busStop="19_0" duration="20" />
		<stop busStop="20_0" duration="20" />
		<stop busStop="21_0" duration="20" />
		<stop busStop="22_0" duration="20" />
		<stop busStop="23_0" duration="20" />
		<stop busStop="24_0" duration="20" />
		<stop busStop="25_0" duration="20" />
		<stop busStop="26_0" duration="20" />
		<stop busStop="26_1" duration="20" />
		<stop busStop="25_1" duration="20" />
		<stop busStop="24_1" duration="20" />
		<stop busStop="23_1" duration="20" />
		<stop busStop="22_1" duration="20" />
		<stop busStop="21_1" duration="20" />
		<stop busStop="20_1" duration="20" />
		<stop busStop="19_1" duration="20" />
		<stop busStop="18_1" duration="20" />
		<stop busStop="17_1" duration="20" />
		<stop busStop="16_1" duration="20" />
		<stop busStop="15_1" duration="20" />
		<stop busStop="14_1" duration="20" />
		<stop busStop="13_1" duration="20" />
		<stop busStop="12_1" duration="20" />
		<stop busStop="11_1" duration="20" />
		<stop busStop="10_1" duration="20" />
		<stop busStop="9_1" duration="20" />
		<stop busStop="8_1" duration="20" />
		<stop busStop="7_1" duration="20" />
		<stop busStop="6_1" duration="20" />
		<stop busStop="5_1" duration="20" />
		<stop busStop="4_1" duration="20" />
		<stop busStop="3_1" duration="20" />
		<stop busStop="2_1" duration="20" />
		<stop busStop="1_1" duration="20" />
	</route>

	<route repeat="100" id="line2" edges=" 175770856#2 175770864#3 243164057#0 243164057#1 561521678#1 561521678#2 561521678#3 706134222 706134223 884679934#0 884679934#1 991667825#0 991667825#1 991667825#2 991667825#3-AddedOnRampEdge 991667825#3 991667825#4 175770927#0 175770927#1 931083216-AddedOnRampEdge 931083216 547859763 882302343-AddedOnRampEdge 882302343 547859767 991668612#0 991668612#1 882701917#1 882701917#2 882701917#3 991668613#1 991668505#1 991668506#1 931083217#0 gneE53 872162201#0 872162201#1 872162201#2 200308393#0 200308393#1 200308393#2 200308393#3 200308393#4 200308393#5 200308393#6 200308393#7 200308393#8 200308393#9 200308393#10 200308393#11 200308393#12 193015778#0 193015778#1 193015778#2 193015778#3 193015778#4 193015778#5 193015778#6 193015778#7 193015778#8 193015778#9 200605729 706138387#0 706138387#1 706138387#2 706138387#3 706138387#4 706138387#5 706138387#6 706138387#7 706138387#8 200606259 430059282 351919876#0 351919876#1 351919876#2 351919876#3 351919876#5 351919876#7 351919876#8 351919876#9 351919876#10 351919876#11 351919876#12 351919876#13 351919876#14 897914589 897914590#1 352068918#1 352068918#2 352068918#3 352068918#4 352068918#5 352068918#5-AddedOffRampEdge 352068918#6 151278551#4 151278551#5 gneE60 gneE61 gneE62 712612528#1 712612528#3 712612528#4 712612528#5 712612528#6 gneE63 gneE64 gneE65 gneE66 gneE67 gneE68 53472482#0 53472482#1 53472482#2 53472482#3 53472482#4 475518425#0 475518425#1 879770538 475518439#0 475518439#1 477086185#0 477086185#1 477086185#2 477086185#3 437724231#1 764339960 688206691#1 688206691#2 688206691#3 688206691#4 688206691#5 688206691#6 688206691#7 688206691#8 688206691#9 427105502 427104605#0 427104605#1 674216842#0 674216842#1 674216842#2 674216842#3 674216842#4 674216842#5 674216842#6 674216842#7 60839633#0 60839633#1-AddedOnRampEdge 60839633#1 310392934#0 310392934#1 310392934#2 310392934#3 901958872 53472475#0-AddedOnRampEdge 53472475#0 53472475#1 53472475#2 53472475#3 53472475#4 53472475#5 53472475#6 53472475#7 53472475#8 53472475#9 53472480#1 53472480#2 53472480#2-AddedOffRampEdge 764339962 437724233#1-AddedOnRampEdge 437724233#1 437724230#1 437724230#2 437724230#3 437724230#4 437724230#5 437724230#6 437724230#7 gneE69 gneE70 gneE71 gneE72 706153813#2 198945819#0 198945819#1 198945819#2 198945819#3 198945819#5 198945819#6 198945819#7 198945819#8 198945819#10 198945819#11 198945819#12 198945819#14 198945819#15 198945819#16 198945819#17 198945819#18 198945819#19 198945819#20 198945819#21 198945819#22 198945819#23 198945819#24 198945819#25 198945819#26 198945819#27 198945819#28 198945819#29 198945819#30 198945819#31 198945819#32 485787762#0 485787762#1 706138388#0 706138388#1 706138388#2 554959830#0 631885269#1 631885269#2 631885269#4 631885269#5 631885269#6 631885269#8 631885269#9 631885269#10 631885269#12 631885269#13 631885269#14 631885269#15 631885269#17 631885269#20 335244248#0 335244248#1 335244248#2 335244248#3 335244248#4 335244248#5 335244248#6 335244248#9 335244248#11 335244248#12 335244248#13 335244248#14 335244248#15 335244248#16 335244248#17 335244248#18 335244248#19 335244248#20 335244248#21 712612528#9 712612528#10 712612528#0 572493599#0 572493599#1 572493599#2 572493599#3 572493599#5 572493599#6 572493599#7 572493599#8 572493599#9 4319051#0 4319051#2 4319051#3 4319051#4 4319051#6 4319051#8 4319051#9 4319051#10 4319051#11 4319051#12 4319051#13 4319051#14 4319051#16 4319051#18 4319051#19 4319051#20 4319051#21 4319051#22 4319051#23 4319051#24 4319051#25 4319051#27 4319051#29 4319051#30 4319051#31 4319051#32 4319051#33 4319051#34 4319051#35 4319051#36 151278551#1 gneE56 gneE57 gneE58 gneE59 200605728#3 706138386#0 706138386#1 706138386#2 712481359#0 712481359#1 712481359#2 712481359#3 712481359#4 712481359#5 712481359#6 712481359#7 712481359#8 712481359#9 712481359#10 712481359#11 712481359#12 712481359#13 712481359#14 712481359#15 712481359#16 712481359#17 712481359#18 712481359#19 712481359#20 712481359#21 712481359#22 712481359#23 712481359#24 712481359#25 712481359#26 712481359#27 700313869#0 700313869#1 700313869#2 700313869#3 700313869#4 901189011#0 901189011#1 706138385 706138383 706138384#0 706138384#1 706138384#2 706138384#3 706138381#0 706138381#1 706138381#2 706138381#3 706136014#0 706136014#1 706136013#0 706136013#1 706136012 901958877 538459017#0 538459017#1 538459017#2 538459017#3 706136010 706136009 706136008 706136007 706136006#0 706136006#1 706136005 706136005-AddedOffRampEdge 706136004#0 706136004#1 706136003#1 971056666 545298845#0 545298845#1 545298845#2 545298845#3 545298845#5 545298845#6 706134222 175770863#0 175770863#1 175770863#2 175770863#3 706134221 72508540 152844696#0 152844696#1 152844696#2 152844696#3 175770856#0 175770856#1     " color="yellow" >
	
		<stop busStop="27_0" duration="20" />
		<stop busStop="28_0" duration="20" />
		<stop busStop="29_0" duration="20" />
		<stop busStop="30_0" duration="20" />
		<stop busStop="31_0" duration="20" />
		<stop busStop="32_0" duration="20" />
		<stop busStop="33_0" duration="20" />
		<stop busStop="34_0" duration="20" />
		<stop busStop="35_0" duration="20" />
		<stop busStop="36_0" duration="20" />
		<stop busStop="37_0" duration="20" />
		<stop busStop="38_0" duration="20" />
		<stop busStop="39_0" duration="20" />
		<stop busStop="40_0" duration="20" />
		<stop busStop="41_0" duration="20" />
		<stop busStop="42_0" duration="20" />
		<stop busStop="43_0" duration="20" />
		<stop busStop="44_0" duration="20" />
		<stop busStop="45_0" duration="20" />
		<stop busStop="46_0" duration="20" />
		<stop busStop="47_0" duration="20" />
		<stop busStop="48_0" duration="20" />
		<stop busStop="49_0" duration="20" />
		<stop busStop="50_0" duration="20" />
		<stop busStop="51_0" duration="20" />
		<stop busStop="52_0" duration="20" />
		<stop busStop="52_1" duration="20" />
		<stop busStop="51_1" duration="20" />
		<stop busStop="50_1" duration="20" />
		<stop busStop="49_1" duration="20" />
		<stop busStop="48_1" duration="20" />
		<stop busStop="47_1" duration="20" />
		<stop busStop="46_1" duration="20" />
		<stop busStop="45_1" duration="20" />
		<stop busStop="44_1" duration="20" />
		<stop busStop="43_1" duration="20" />
		<stop busStop="42_1" duration="20" />
		<stop busStop="41_1" duration="20" />
		<stop busStop="40_1" duration="20" />
		<stop busStop="39_1" duration="20" />
		<stop busStop="38_1" duration="20" />
		<stop busStop="37_1" duration="20" />
		<stop busStop="36_1" duration="20" />
		<stop busStop="35_1" duration="20" />
		<stop busStop="34_1" duration="20" />
		<stop busStop="33_1" duration="20" />
		<stop busStop="32_1" duration="20" />
		<stop busStop="31_1" duration="20" />
		<stop busStop="30_1" duration="20" />
		<stop busStop="29_1" duration="20" />
		<stop busStop="28_1" duration="20" />
		<stop busStop="27_1" duration="20" />
	
	</route>

	<route repeat="100" id="line3" edges="609193378 895980317 895975285 895980316#0 895980316#1 406508265 53472478 53472471 895975286 685762335#0 685762335#1 523284841#0 523284841#1 523284841#2 523284841#2-AddedOffRampEdge 523284841#3 523284841#4-AddedOnRampEdge 523284841#4 523284841#5 523284841#6 523284841#7 523284841#8 895975288#0 895975288#1-AddedOnRampEdge 895975288#1 462985791#0 462985791#0-AddedOffRampEdge 462985791#1 462985791#1-AddedOffRampEdge 462985791#2 462985791#3-AddedOnRampEdge 462985791#3 462985791#3-AddedOffRampEdge 462985791#4 462985791#5-AddedOnRampEdge 462985791#5 462985791#5-AddedOffRampEdge 462985791#6 895975290#0 895975290#1 895975290#1-AddedOffRampEdge 921069300 921069301 921069302 150894186#0 150894186#1 150894186#2-AddedOnRampEdge 150894186#2 764330491#0 764330491#1 439967431 150894191 706764933#0 706764933#1 706764933#2 706764933#3 706764933#4 706764933#5 706764933#6 706764933#7 991764269#0 991764269#1 991764269#2 991764269#3 991764269#4 991764269#5 991764268#0 991764268#1 991764268#2 991764268#3 991764268#4 991764268#5 991764268#6 991764264 991764265#0 991764265#1 991764265#2 991764265#3 991764265#4 991764265#5 991764265#6 991764265#7 991764265#8 991764265#9 991764265#10 59421464#6 59421464#1 4344231#0 4344231#1 878613726#0 878613726#1 878613726#2 878613726#3 878613726#4 878613726#5 878613726#6 878613726#7 878613726#8 878613726#9 878613726#10 954608897 632478251#0 632478251#1 632478251#2 632478251#3 632478251#4 632478251#5 632478251#6 979838432#0 979838432#1 979838432#2 979838432#3 979838432#4 979838432#5 979838432#6 979838432#7 979838432#8 979838432#9 979838432#10 979838432#11 979838432#12 979838432#13 824035594 895975293 824035597 706645956#0 706645956#1 706645956#2 706645956#3 706645956#4 706424708#0 706424708#1 706424708#2 706424708#3 706424708#4 890577571#0 890577571#1 890577571#2 890577571#3 890577571#4 890577571#5 890577571#6 890577571#7 902253528#0 902253528#1 220881890 58377373#0 58377373#1 58377373#2 58377373#3 58377373#4 58377373#5 58377373#6 58377373#7 58377373#8 58377373#9 58377373#10 58377373#11 58377373#12 58377373#13 58377373#14 58377373#15 58377373#16 58377373#17 58377373#18 58377373#19 58377373#20 -824035597 824035596 -824035594 32949962#0 32949962#1 32949962#2 32949962#3 32949962#4 32949962#5 32949962#6 32949962#7 32949962#8 32949962#9 32949962#10 32949962#11 32949962#12 32949962#13 32949962#14 32949962#15 32949962#16 32949665#0 32949665#1 32949665#2 32949665#3 32949665#4 32949665#5 32949665#6 32949665#6-AddedOffRampEdge 954608902 954608895#0 954608895#1 954608895#2 954608895#3 954608895#4 954608895#5 954608895#6 954608895#7 954608895#8 954608895#9 954608895#10 878613733 59421464#3 59421464#4 47325459#0 47325459#1 47325459#2 47325459#3 47325459#4 47325459#5 47325459#6 47325459#7 47325459#8 706764934  991764263 991764262#0 991764262#1 150894176#0 150894176#1 150894176#2 150894176#3 150894176#4 150894176#5 991764266#0 991764266#1 991764266#2 991764266#3 991764266#4 991764266#5 991764270#0 991764270#1 991764270#2 991764270#3 991764270#4 991764270#5 991764270#6 991764270#7 386523777 685643383 150894273 902681575 150894172#0 150894172#1 150894172#2 902681577-AddedOnRampEdge 902681577 685659872#0 685659872#1 685659872#1-AddedOffRampEdge 685659872#2 685659872#2-AddedOffRampEdge 685659872#3 685659872#4-AddedOnRampEdge 685659872#4 685659872#4-AddedOffRampEdge 685659872#5 685659872#6-AddedOnRampEdge 685659872#6 902681578#0 902681578#0-AddedOffRampEdge 902681578#1 902681578#2 902681578#3 902681578#4 902681578#5-AddedOnRampEdge 902681578#5 902681578#6 902681578#7 356776751#1 764339979 53472466#0 53472466#1 53472466#2 53472466#3 53472466#4 902681580 465013866#0 465013866#1 465013866#2  " color="yellow" >
		<stop busStop="53_0" duration="20" />
		<stop busStop="54_0" duration="20" />
		<stop busStop="55_0" duration="20" />
		<stop busStop="56_0" duration="20" />
		<stop busStop="57_0" duration="20" />
		<stop busStop="58_0" duration="20" />
		<stop busStop="59_0" duration="20" />
		<stop busStop="60_0" duration="20" />
		<stop busStop="61_0" duration="20" />
		<stop busStop="62_0" duration="20" />
		<stop busStop="63_0" duration="20" />
		<stop busStop="64_0" duration="20" />
		<stop busStop="65_0" duration="20" />
		<stop busStop="66_0" duration="20" />
		<stop busStop="67_0" duration="20" />
		<stop busStop="68_0" duration="20" />
		<stop busStop="69_0" duration="20" />
		<stop busStop="70_0" duration="20" />
		<stop busStop="70_1" duration="20" />
		<stop busStop="69_1" duration="20" />
		<stop busStop="68_1" duration="20" />
		<stop busStop="67_1" duration="20" />
		<stop busStop="66_1" duration="20" />
		<stop busStop="65_1" duration="20" />
		<stop busStop="64_1" duration="20" />
		<stop busStop="63_1" duration="20" />
		<stop busStop="62_1" duration="20" />
		<stop busStop="61_1" duration="20" />
		<stop busStop="60_1" duration="20" />
		<stop busStop="59_1" duration="20" />
		<stop busStop="58_1" duration="20" />
		<stop busStop="57_1" duration="20" />
		<stop busStop="56_1" duration="20" />
		<stop busStop="55_1" duration="20" />
		<stop busStop="54_1" duration="20" />
		<stop busStop="53_1" duration="20" />
	</route>

	<route repeat="100" id="line4" edges="884898983 99011827 783765878#0 783765878#1 879182329#0 783765879 783765880#0 783765880#1-AddedOnRampEdge 783765880#1 878103016#0 878103016#1 835570967#0 835570967#1 487506120#0 487506120#1 487506120#2-AddedOnRampEdge 487506120#3 785113615#0 785113615#1 835570966#2-AddedOnRampEdge 835570966#2 835570966#2-AddedOffRampEdge 835570966#3 835570966#4 783765882#1-AddedOnRampEdge 783765882#1 783765882#1-AddedOffRampEdge 783765882#2 783765883#1-AddedOnRampEdge 783765883#1 783765883#1-AddedOffRampEdge 783765883#2 903399189#1-AddedOnRampEdge 903399189#1 903399189#2-AddedOnRampEdge 903399189#2 903399189#2-AddedOffRampEdge 903399189#3 903399190-AddedOnRampEdge 903399190 903399190-AddedOffRampEdge 701600571#0 701600571#1-AddedOnRampEdge 701600571#1 701600571#1-AddedOffRampEdge 701600571#2 701600571#3 701600571#3-AddedOffRampEdge 701600571#4 701600571#5-AddedOnRampEdge 701600571#5 701600571#5-AddedOffRampEdge 701600571#6 701600571#7-AddedOnRampEdge 701600571#7 784055688#1-AddedOnRampEdge 784055688#1 398260891#0 398260891#1-AddedOnRampEdge 398260891#1 398260891#2 398260891#2-AddedOffRampEdge 398260891#3 398260891#4 398260891#5 398260891#6 784055690#0 784055690#1 977813242#1 72878034#0 72878034#1 72878034#2 72878034#3 72878034#4 422443839#0 422443839#1 422443839#2 422443839#3 422443839#4 991974231 991974234 975987473#1 975987473#2 975987473#3 460466999#0 460466999#1 460466999#2 460466999#3 460466999#4 460466999#5 4298002#1 4298002#2 764337436#0 764337436#1 764337436#2 764337436#3 764337436#4 764337436#5 764337436#6-AddedOnRampEdge 764337436#6 764337436#7 533996648#0-AddedOnRampEdge 533996648#0 533996648#1 533996648#1-AddedOffRampEdge 533996648#2 533996648#3 533996648#4 533996648#5 533996648#6 533996648#7 533996648#8 533996648#9 533996648#10 533996648#11 533996648#12 533996648#13 533996648#14 533996648#15 533996648#16 723949359#0 723949359#1 723949359#2 723949359#3 689753854 200607282#0 200607282#1 784055694 102709186 4832085#0 4832085#1 4832085#2 4832085#3 4832085#4 102709192 330642533#0 330642533#1 330642533#2 330642533#3 330642533#4 358643798#0 358643798#1-AddedOnRampEdge 358643798#1 358643798#1-AddedOffRampEdge 358643798#2 151277624 151277626#0 151277626#1 151277626#2 151277626#3 151277626#4 151277626#5 711329772 784055697 784055696 784055702 437329473#0 437329473#1 784055703#1 -784055703#1 706356315#1 706356316 706356316-AddedOffRampEdge 706356321#0 -784055699 gneE1 36315517#0 36315517#1 764335279#0-AddedOnRampEdge 764335279#0 764335279#0-AddedOffRampEdge 764335279#1 151277625 151277623#0 151277623#1-AddedOnRampEdge 151277623#1 151277623#3 151277623#4 102709190#0 102709190#1 102709190#3 102709190#4 473536298 784055695#1 81109486 572512959#1-AddedOnRampEdge 533973621#0 533973621#1 533973621#2 533973621#3 533973622#0 533973622#1 430063054#0 430063054#1 430063054#2 430063054#3 430063054#4 430063054#5 430063054#6 430063054#7 430063054#8 430063054#9 430063054#10 430063054#11 430063054#12 430063054#13 430063054#14 430063054#15-AddedOnRampEdge 430063054#15 430063054#16 533996653#0 533996653#1 533996653#2 533996653#3 533996653#4 533996653#5 533996653#6 533996653#7 533996653#8 533996653#9 533996653#10 4298002#4 4298002#5 4298002#6 764337438 422443843#1 422443843#2 422443843#3  422443843#5 422443843#6 485668457#0 485668457#1 485668457#2 485668457#3 485668457#4 485668457#5 485668457#6 485668457#7 485668457#8 485668457#9 485668457#10 485668457#11 485668457#13 273580534#0 273580534#1 273580534#2-AddedOnRampEdge 273580534#2 273580534#3 273580534#4 273580534#4-AddedOffRampEdge 273580534#5 273580534#6-AddedOnRampEdge 273580534#6 273580534#7-AddedOnRampEdge 273580534#7 701600573#1-AddedOnRampEdge 701600573#1 701600573#2 701600573#2-AddedOffRampEdge 701600573#3 701600573#4 701600573#5 701600573#6 701600573#7-AddedOnRampEdge 701600573#7 701600573#7-AddedOffRampEdge 701600573#9 701600573#10 701600573#11-AddedOnRampEdge 701600573#11 701600573#11-AddedOffRampEdge 701600573#12 701600573#13-AddedOnRampEdge 701600573#13 701600573#14-AddedOnRampEdge 701600573#14 701600573#14-AddedOffRampEdge 701600573#15 701600573#16-AddedOnRampEdge 701600573#16 701600573#17 701600573#18 701600573#18-AddedOffRampEdge 701600573#19 701600573#20-AddedOnRampEdge 701600573#20 982894484#1 690076050#0-AddedOnRampEdge 690076050#0 690076050#0-AddedOffRampEdge 690076050#1 690076050#2 690076050#3 690076050#4 690076050#5-AddedOnRampEdge 690076050#5 690076050#5-AddedOffRampEdge 690076050#6 690076050#7 690076050#9-AddedOnRampEdge 690076050#9 690076050#10 690076050#11 690076050#12 690076050#13 690076050#14 462903593#0 462903593#1 462903593#2 884898981#0 884898981#1 153259633 385708832 " color="yellow" >
		<stop busStop="76_0"  duration="20" />
		<stop busStop="77_0"  duration="20" />
		<stop busStop="78_0"  duration="20" />
		<stop busStop="79_0"  duration="20" />
		<stop busStop="80_0"  duration="20" />
		<stop busStop="81_0"  duration="20" />
		<stop busStop="82_0"  duration="20" />
		<stop busStop="83_0"  duration="20" />
		<stop busStop="84_0"  duration="20" />
		<stop busStop="85_0"  duration="20" />
		<stop busStop="86_0"  duration="20" />
		<stop busStop="87_0"  duration="20" />
		<stop busStop="88_0"  duration="20" />
		<stop busStop="89_0"  duration="20" />
		<stop busStop="90_0"  duration="20" />
		<stop busStop="91_0"  duration="20" />
		<stop busStop="92_0"  duration="20" />
		<stop busStop="93_0"  duration="20" />
		<stop busStop="94_0"  duration="20" />
		<stop busStop="95_0"  duration="20" />
		<stop busStop="96_0"  duration="20" />
		<stop busStop="97_0"  duration="20" />
		<stop busStop="98_0"  duration="20" />
		<stop busStop="98_1"  duration="20" />
		<stop busStop="97_1"  duration="20" />
		<stop busStop="96_1"  duration="20" />
		<stop busStop="95_1"  duration="20" />
		<stop busStop="94_1"  duration="20" />
		<stop busStop="93_1"  duration="20" />
		<stop busStop="92_1"  duration="20" />
		<stop busStop="91_1"  duration="20" />
		<stop busStop="90_1"  duration="20" />
		<stop busStop="89_1"  duration="20" />
		<stop busStop="88_1"  duration="20" />
		<stop busStop="87_1"  duration="20" />
		<stop busStop="86_1"  duration="20" />
		<stop busStop="85_1"  duration="20" />
		<stop busStop="84_1"  duration="20" />
		<stop busStop="83_1"  duration="20" />
		<stop busStop="82_1"  duration="20" />
		<stop busStop="81_1"  duration="20" />
		<stop busStop="80_1"  duration="20" />
		<stop busStop="79_1"  duration="20" />
		<stop busStop="78_1"  duration="20" />
		<stop busStop="77_1"  duration="20" />
		<stop busStop="76_1"  duration="20" />

	</route>
	
	<route repeat="100" color="blue" id="line5" edges=" 4354825#5 889467196#0 889467196#1 889467196#2 57826832#0 57826832#1 57826832#1-AddedOffRampEdge 57826815#0 57826815#1 57826815#2 57826815#3 57826815#4 17096565-AddedOnRampEdge 17096565 28341570#1 28341570#2 28341570#3-AddedOnRampEdge 28341570#3 28343055-AddedOnRampEdge 28343055 162316663#0 162316663#0-AddedOffRampEdge 162316663#1 164595009 164595010 162316666#0 162316666#0-AddedOffRampEdge 162316666#1 162316666#2 151931079-AddedOnRampEdge 151931079 151931018#0 151931018#1-AddedOnRampEdge 151931018#1 151931018#2 151931018#3 151931018#4 151931018#5 151931018#6 151931018#7 151931018#8 151931018#9 151931018#10 890577570#0 890577570#1 890577570#2 890577570#3 890577570#4 890577570#5 890577570#6 890577570#7 890577570#8 688517974#0 688517974#1 895975294#0 895975294#1 895975294#2 895975294#3 706645956#0 706645956#1 706645956#2 706645956#3 706645956#4 706424708#0 706424708#1 706424708#2 706424708#3 706424708#4 890577571#0 890577571#1 890577571#2 890577571#3 890577571#4 890577571#5 890577571#6 890577571#7 902253528#0 902253528#1 220881890 58377373#0 58377373#1 58377373#2 58377373#3 58377373#4 58377373#5 58377373#6 58377373#7 58377373#8 58377373#9 58377373#10 58377373#11 58377373#12 58377373#13 58377373#14 58377373#15 58377373#16 58377373#17 58377373#18 58377373#19 58377373#20 902681569#0 902681569#1 902681569#2 902681569#3 902681569#3-AddedOffRampEdge 902681569#4 902681569#5 151931038 902253530#0 902253530#1 902253530#2 902253530#3 902253530#4 902253530#4-AddedOffRampEdge 902253530#5 902253530#6 902253530#7 686516034#0 686516034#1 686516034#2 686516034#3 686516034#4 686516034#5 686516034#6 686516034#7 686516034#8 686516034#9 151931072 151931063#0 151931063#1-AddedOnRampEdge 151931063#1 151931063#2 151931063#3 162316970 162316970-AddedOffRampEdge 164595008#0 164595008#1 164595012 162316972#0-AddedOnRampEdge 162316972#0 162316972#1 162316972#2 162316972#2-AddedOffRampEdge 28343066#1 28343061#1-AddedOnRampEdge 28343061#1 4816112#1-AddedOnRampEdge 4816112#1 4816112#2 4816112#3 4816112#4 4816112#4-AddedOffRampEdge 4816112#5 28341576 57826810#0 57826810#1 472294453 472294453-AddedOffRampEdge 57826817#0 57826817#0-AddedOffRampEdge 760904998#0 760904998#1 890585614#2-AddedOnRampEdge 890585614#2 890585614#3 890585614#4 890585614#5 4354825#2 4354825#3 4354825#4 ">
	
		<stop busStop="100_0" duration="20" />