<?xml version="1.0" encoding="UTF-8"?>

<!-- generated on 2022-05-16 19:04:24 by Eclipse SUMO netedit Version 1.10.0
<configuration xmlns:xsi="http://www.w3.org/2001/XMLSchema-instance" xsi:noNamespaceSchemaLocation="http://sumo.dlr.de/xsd/netconvertConfiguration.xsd">

    <input>
        <sumo-net-file value="C:\Users\mojtaba_sji\OneDrive\payannameh\Swig\builded\osm.net.xml"/>
    </input>

    <output>
        <output-file value="C:\Users\mojtaba_sji\OneDrive\payannameh\Swig\builded\osm.net.xml"/>
        <output.street-names value="true"/>
    </output>

    <processing>
        <geometry.min-radius.fix.railways value="false"/>
        <geometry.max-grade.fix value="false"/>
        <offset.disable-normalization value="true"/>
        <lefthand value="false"/>
    </processing>

    <junctions>
        <no-turnarounds value="true"/>
        <junctions.corner-detail value="5"/>
        <junctions.limit-turn-speed value="5.5"/>
        <rectangular-lane-cut value="false"/>
    </junctions>

    <pedestrian>
        <walkingareas value="false"/>
    </pedestrian>

    <netedit>
        <additional-files value="C:\Users\mojtaba_sji\OneDrive\payannameh\Swig\builded\osm_stops.add.xml"/>
    </netedit>

    <report>
        <aggregate-warnings value="5"/>
    </report>

</configuration>
-->

<additional xmlns:xsi="http://www.w3.org/2001/XMLSchema-instance" xsi:noNamespaceSchemaLocation="http://sumo.dlr.de/xsd/additional_file.xsd">
    <busStop id="-2169691367" lane="-531784904#1_0" startPos="0.00" endPos="100.00" name="فرهنگسرا" friendlyPos="1">
        <access lane="-773130135#4_0" pos="8.23" length="200.62" friendlyPos="1"/>
        <access lane="773130135#4_0" pos="105.67" length="195.82" friendlyPos="1"/>
    </busStop>
    <busStop id="-2169732956" lane="-360562330_0" startPos="0.00" endPos="100.00" name="شهرک اکباتان" friendlyPos="1">
        <access lane="-339973084_0" pos="97.55" length="145.75" friendlyPos="1"/>
        <access lane="339958481#10_0" pos="265.02" length="66.05" friendlyPos="1"/>
        <access lane="339973090#1_0" pos="77.27" length="76.46" friendlyPos="1"/>
        <access lane="460137917#0_0" pos="152.28" length="49.06" friendlyPos="1"/>
    </busStop>
    <busStop id="-2169732980" lane="-531786471#0_0" startPos="427.19" endPos="627.19" name="نیرو هوایی" friendlyPos="1">
        <access lane="426957152#10_0" pos="284.75" length="42.77" friendlyPos="1"/>
        <access lane="740635035#0-AddedOnRampEdge_0" pos="35.53" length="3.46" friendlyPos="1"/>
        <access lane="740636735#3_0" pos="66.43" length="59.29" friendlyPos="1"/>
        <access lane="885240739#4_0" pos="30.40" length="50.71" friendlyPos="1"/>
        <access lane="921069303#3_0" pos="200.86" length="20.48" friendlyPos="1"/>
    </busStop>
    <busStop id="-3080821096" lane="-439856575#5_0" startPos="1159.49" endPos="1359.49" name="فدک" friendlyPos="1">
        <access lane="193304012#3_0" pos="99.88" length="12.37" friendlyPos="1"/>
        <access lane="193314545_0" pos="61.96" length="19.64" friendlyPos="1"/>
        <access lane="690940930#15_0" pos="58.82" length="20.37" friendlyPos="1"/>
    </busStop>
    <busStop id="-3548939496" lane="-332271287#0_0" startPos="794.24" endPos="994.24" name="پانزده خرداد" friendlyPos="1">
        <access lane="332279292#35_0" pos="22.43" length="6.03" friendlyPos="1"/>
        <access lane="335719636_0" pos="17.95" length="5.72" friendlyPos="1"/>
        <access lane="336269375#0_0" pos="7.35" length="17.94" friendlyPos="1"/>
    </busStop>
    <busStop id="-3641204693" lane="-358622226#0_0" startPos="0.00" endPos="100.00" name="جوادیه" friendlyPos="1">
        <access lane="-359400274_0" pos="144.62" length="12.25" friendlyPos="1"/>
        <access lane="-609479111#1_0" pos="54.13" length="150.00" friendlyPos="1"/>
        <access lane="422016596_0" pos="265.92" length="5.09" friendlyPos="1"/>
        <access lane="609479111#1_0" pos="97.07" length="145.20" friendlyPos="1"/>
    </busStop>
    <busStop id="-3649760925" lane="-445967481#5_0" startPos="0.00" endPos="100.00" name="آزادگان" friendlyPos="1">
        <access lane="476362435#0_0" pos="1.24" length="26.37" friendlyPos="1"/>
        <access lane="476362435#1_0" pos="2.12" length="19.28" friendlyPos="1"/>
        <access lane="585945429#3_0" pos="243.96" length="12.95" friendlyPos="1"/>
    </busStop>
    <busStop id="-3649760928" lane="-445967481#2_0" startPos="28.12" endPos="132.33" name="شهرک شریعتی" friendlyPos="1">
        <access lane="-523623396_0" pos="105.19" length="37.66" friendlyPos="1"/>
        <access lane="449494359#0_0" pos="3.34" length="33.80" friendlyPos="1"/>
        <access lane="449494364_0" pos="9.33" length="26.24" friendlyPos="1"/>
        <access lane="523623400#2_0" pos="4.19" length="5.49" friendlyPos="1"/>
    </busStop>
    <busStop id="-3778821747" lane="-278822219#5_0" startPos="359.19" endPos="559.19" name="شهید قدوسی" friendlyPos="1">
        <access lane="454606871#1_0" pos="15.31" length="24.44" friendlyPos="1"/>
        <access lane="682307877#2_0" pos="172.42" length="2.99" friendlyPos="1"/>
    </busStop>
    <busStop id="-3778822187" lane="-561284303#1_0" startPos="7090.74" endPos="7290.74" name="هروی" friendlyPos="1">
        <access lane="-155716321_0" pos="31.58" length="65.95" friendlyPos="1"/>
        <access lane="207902889#0_0" pos="95.08" length="33.13" friendlyPos="1"/>
        <access lane="448993771_0" pos="77.68" length="116.07" friendlyPos="1"/>
    </busStop>
    <busStop id="-3778861785" lane="-278822219#5_0" startPos="1088.48" endPos="1288.48" name="سهروردی" friendlyPos="1">
        <access lane="-164595075_0" pos="65.36" length="63.51" friendlyPos="1"/>
        <access lane="164595075_0" pos="182.96" length="68.31" friendlyPos="1"/>
        <access lane="36361868_0" pos="17.52" length="109.41" friendlyPos="1"/>
        <access lane="682415095#9_0" pos="64.47" length="5.02" friendlyPos="1"/>
        <access lane="819140281#1_0" pos="137.44" length="15.79" friendlyPos="1"/>
    </busStop>
    <busStop id="-3778861786" lane="-561284303#1_0" startPos="11480.67" endPos="11680.67" name="شهید صیاد شیرازی" friendlyPos="1">
        <access lane="-894829958_0" pos="5.83" length="74.84" friendlyPos="1"/>
        <access lane="151931173#0_0" pos="96.68" length="19.53" friendlyPos="1"/>
        <access lane="207931273_0" pos="234.45" length="55.03" friendlyPos="1"/>
        <access lane="396826968#0_0" pos="6.30" length="28.66" friendlyPos="1"/>
    </busStop>
    <busStop id="-3778861787" lane="-561284303#1_0" startPos="10525.91" endPos="10725.91" name="خواجه عبدالله انصاری" friendlyPos="1">
        <access lane="164595076-AddedOffRampEdge_0" pos="47.94" length="45.21" friendlyPos="1"/>
        <access lane="28272739_0" pos="113.76" length="21.07" friendlyPos="1"/>
        <access lane="429869376#1_0" pos="78.15" length="63.08" friendlyPos="1"/>
    </busStop>
    <busStop id="-3778861789" lane="-561284303#1_0" startPos="6128.75" endPos="6328.75" name="حسین آباد" friendlyPos="1">
        <access lane="-151853143#0_0" pos="47.44" length="61.49" friendlyPos="1"/>
        <access lane="-39016881#0_0" pos="227.15" length="61.53" friendlyPos="1"/>
        <access lane="470422222_0" pos="58.94" length="28.12" friendlyPos="1"/>
    </busStop>
    <busStop id="-3778861790" lane="-561284303#1_0" startPos="4678.61" endPos="4878.61" name="نوبنیاد" friendlyPos="1">
        <access lane="155706921_0" pos="45.89" length="37.43" friendlyPos="1"/>
        <access lane="155706969_0" pos="8.51" length="29.26" friendlyPos="1"/>
        <access lane="446124573_0" pos="0.20" length="29.88" friendlyPos="1"/>
    </busStop>
    <busStop id="-3778861791" lane="-561284303#1_0" startPos="3067.42" endPos="3267.42" name="اقدسیه" friendlyPos="1">
        <access lane="330345122#3_0" pos="45.22" length="12.79" friendlyPos="1"/>
        <access lane="783610687#0-AddedOffRampEdge_0" pos="5.86" length="19.43" friendlyPos="1"/>
        <access lane="783610687#0_0" pos="116.90" length="25.78" friendlyPos="1"/>
    </busStop>
    <busStop id="-3778861792" lane="-561284303#1_0" startPos="823.79" endPos="1023.79" name="شهید محلاتی" friendlyPos="1">
        <access lane="643701855_0" pos="5.98" length="31.07" friendlyPos="1"/>
        <access lane="763381345_0" pos="18.72" length="43.01" friendlyPos="1"/>
        <access lane="879180984#0_0" pos="27.28" length="37.31" friendlyPos="1"/>
    </busStop>
    <busStop id="-3778861797" lane="-561284303#2_0" startPos="0.00" endPos="100.00" name="قائم" friendlyPos="1">
        <access lane="158528893_0" pos="344.58" length="22.85" friendlyPos="1"/>
        <access lane="436140356_0" pos="18.63" length="19.40" friendlyPos="1"/>
        <access lane="4591290#5_0" pos="0.38" length="40.02" friendlyPos="1"/>
        <access lane="4591290#6_0" pos="4.71" length="28.36" friendlyPos="1"/>
        <access lane="506568105_0" pos="23.94" length="46.92" friendlyPos="1"/>
    </busStop>
    <busStop id="-3784645915" lane="-375075389#0_0" startPos="3218.08" endPos="3418.08" name="شهید محلاتی" friendlyPos="1">
        <access lane="310587645_0" pos="6.00" length="46.57" friendlyPos="1"/>
        <access lane="310587648_0" pos="4.23" length="45.00" friendlyPos="1"/>
        <access lane="593502985#6_0" pos="91.80" length="14.78" friendlyPos="1"/>
        <access lane="60960805#2_0" pos="8.16" length="50.09" friendlyPos="1"/>
        <access lane="712521733#4_0" pos="90.75" length="45.80" friendlyPos="1"/>
    </busStop>
    <busStop id="-3784645922" lane="-375075389#0_0" startPos="1419.93" endPos="1619.93" name="دولاب" friendlyPos="1">
        <access lane="-199146929#1_0" pos="9.08" length="49.30" friendlyPos="1"/>
        <access lane="-36786682#0_0" pos="51.63" length="15.87" friendlyPos="1"/>
        <access lane="36786679#0_0" pos="6.17" length="16.27" friendlyPos="1"/>
        <access lane="36786682#0_0" pos="6.33" length="20.67" friendlyPos="1"/>
    </busStop>
    <busStop id="-3784648870" lane="-375075389#0_0" startPos="4003.53" endPos="4103.53" name="بسیج" friendlyPos="1">
        <access lane="466010602#1_0" pos="6.50" length="17.90" friendlyPos="1"/>
        <access lane="466012030_0" pos="83.49" length="23.35" friendlyPos="1"/>
        <access lane="903279903#0_0" pos="8.02" length="0.41" friendlyPos="1"/>
    </busStop>
    <busStop id="-3784648871" lane="-375075389#0_0" startPos="2355.86" endPos="2555.86" name="اهنگ" friendlyPos="1">
        <access lane="206838892#1_0" pos="26.77" length="32.49" friendlyPos="1"/>
        <access lane="459229127_0" pos="7.55" length="26.84" friendlyPos="1"/>
        <access lane="499220673#3_0" pos="49.40" length="12.30" friendlyPos="1"/>
        <access lane="712521733#10_0" pos="66.04" length="11.60" friendlyPos="1"/>
        <access lane="834693815_0" pos="10.49" length="24.77" friendlyPos="1"/>
    </busStop>
    <busStop id="-3815454692" lane="-378127816#0_0" startPos="6105.50" endPos="6205.50" name="دولت آباد" friendlyPos="1">
        <access lane="-653035781#3_0" pos="20.43" length="64.70" friendlyPos="1"/>
        <access lane="653035779#3_0" pos="47.44" length="82.37" friendlyPos="1"/>
        <access lane="653035781#2_0" pos="92.79" length="65.71" friendlyPos="1"/>
    </busStop>
    <busStop id="-3815454729" lane="-378127816#1_0" startPos="1532.15" endPos="1732.15" name="امیر کبیر" friendlyPos="1">
        <access lane="-196622663#0_0" pos="44.17" length="31.12" friendlyPos="1"/>
        <access lane="4344286#2_0" pos="25.01" length="21.19" friendlyPos="1"/>
        <access lane="469390690#0_0" pos="28.01" length="16.24" friendlyPos="1"/>
        <access lane="475518412#10_0" pos="9.79" length="11.44" friendlyPos="1"/>
    </busStop>
    <busStop id="-3815456848" lane="-916915022#0_0" startPos="2589.51" endPos="2789.51" name="شهید ستاری" friendlyPos="1">
        <access lane="66689848#0_0" pos="29.26" length="14.43" friendlyPos="1"/>
        <access lane="722336305_0" pos="83.09" length="5.89" friendlyPos="1"/>
    </busStop>
    <busStop id="-3853324444" lane="-378127816#0_0" startPos="3894.11" endPos="4094.11" name="کیانشهر" friendlyPos="1">
        <access lane="-279684603#3_0" pos="5.92" length="10.48" friendlyPos="1"/>
        <access lane="-36799818#3_0" pos="26.63" length="25.74" friendlyPos="1"/>
        <access lane="279684603#3_0" pos="21.78" length="5.68" friendlyPos="1"/>
        <access lane="36799818#2_0" pos="199.09" length="22.20" friendlyPos="1"/>
    </busStop>
    <busStop id="-3930789262" lane="-461961970#6_0" startPos="430.91" endPos="530.91" name="بیمه" friendlyPos="1">
        <access lane="178827367_0" pos="17.24" length="10.98" friendlyPos="1"/>
        <access lane="392052715#3_0" pos="13.65" length="17.85" friendlyPos="1"/>
        <access lane="497655094#5_0" pos="108.30" length="20.17" friendlyPos="1"/>
        <access lane="497655094#6_0" pos="8.72" length="14.73" friendlyPos="1"/>
        <access lane="885442210_0" pos="3.99" length="22.35" friendlyPos="1"/>
    </busStop>
    <busStop id="-4079699883" lane="-586649509#1_0" startPos="24.54" endPos="224.54" name="تهران (صادقیه)" friendlyPos="1">
        <access lane="-152829460#0_0" pos="15.18" length="18.89" friendlyPos="1"/>
        <access lane="-152829460#1_0" pos="65.12" length="35.85" friendlyPos="1"/>
        <access lane="152829460#0_0" pos="48.46" length="23.69" friendlyPos="1"/>
        <access lane="700799833_0" pos="0.20" length="29.61" friendlyPos="1"/>
    </busStop>
    <busStop id="-4453205974" lane="-561284303#1_0" startPos="8567.46" endPos="8767.46" name="شهید زین الدین" friendlyPos="1">
        <access lane="151940778_0" pos="23.18" length="36.48" friendlyPos="1"/>
        <access lane="151940779_0" pos="23.22" length="22.28" friendlyPos="1"/>
        <access lane="687277051#6_0" pos="29.79" length="41.35" friendlyPos="1"/>
    </busStop>
    <busStop id="-4453604919" lane="-445967481#4_0" startPos="1632.05" endPos="1832.05" name="عبدل آباد" friendlyPos="1">
        <access lane="-449825599_0" pos="14.64" length="78.65" friendlyPos="1"/>
        <access lane="253086939#0_0" pos="31.90" length="67.10" friendlyPos="1"/>
        <access lane="605531869_0" pos="112.23" length="78.39" friendlyPos="1"/>
        <access lane="605537192#1_0" pos="30.14" length="19.76" friendlyPos="1"/>
    </busStop>
    <busStop id="-4453614390" lane="-445967481#4_0" startPos="423.10" endPos="623.10" name="نعمت آباد" friendlyPos="1">
        <access lane="605549961#7_0" pos="18.74" length="39.34" friendlyPos="1"/>
        <access lane="883923536_0" pos="35.05" length="3.00" friendlyPos="1"/>
        <access lane="883934073#1_0" pos="101.57" length="30.94" friendlyPos="1"/>
        <access lane="883934077_0" pos="21.50" length="38.05" friendlyPos="1"/>
    </busStop>
    <busStop id="-4453643066" lane="-182547031_0" startPos="298.08" endPos="398.08" name="صادقیه" friendlyPos="1">
        <access lane="-152829460#0_0" pos="12.66" length="56.09" friendlyPos="1"/>
        <access lane="-152829460#1_0" pos="65.12" length="62.12" friendlyPos="1"/>
        <access lane="152829460#0_0" pos="50.98" length="60.89" friendlyPos="1"/>
        <access lane="700799833_0" pos="0.20" length="56.15" friendlyPos="1"/>
    </busStop>
    <busStop id="-4553519985" lane="-911325099_0" startPos="50.82" endPos="250.82" name="شهید کلاهدوز" friendlyPos="1">
        <access lane="-911325065_0" pos="4.80" length="31.39" friendlyPos="1"/>
        <access lane="-911325066#1_0" pos="51.12" length="45.00" friendlyPos="1"/>
        <access lane="911325065_0" pos="29.58" length="36.19" friendlyPos="1"/>
        <access lane="911325066#1_0" pos="40.25" length="49.80" friendlyPos="1"/>
    </busStop>
    <busStop id="-4674995987" lane="-439856575#5_0" startPos="95.11" endPos="295.11" name="جانبازان" friendlyPos="1">
        <access lane="193316970#1_0" pos="93.20" length="27.00" friendlyPos="1"/>
        <access lane="275638119#7_0" pos="8.29" length="12.56" friendlyPos="1"/>
        <access lane="424763376#0_0" pos="34.08" length="4.68" friendlyPos="1"/>
        <access lane="648795996_0" pos="8.58" length="25.67" friendlyPos="1"/>
    </busStop>
    <busStop id="-4807479645" lane="-614283134_0" startPos="24.45" endPos="39.45" name="پایانه کوهسار" friendlyPos="1" lines="281"/>
    <busStop id="-5161529740" lane="-360562335_0" startPos="0.00" endPos="100.00" name="ارم سبز" friendlyPos="1">
        <access lane="429345565_0" pos="166.84" length="28.43" friendlyPos="1"/>
        <access lane="456927783_0" pos="0.20" length="106.49" friendlyPos="1"/>
        <access lane="456933733_0" pos="5.43" length="109.74" friendlyPos="1"/>
        <access lane="456933735_0" pos="17.91" length="98.61" friendlyPos="1"/>
        <access lane="456933736_0" pos="5.91" length="97.43" friendlyPos="1"/>
    </busStop>
    <busStop id="-5168368226" lane="-39017206#2_0" startPos="0.00" endPos="7.70" name="ایستگاه چهارصد دستگاه" friendlyPos="1" lines="301"/>
    <busStop id="-5188238057" lane="-720467066#1_0" startPos="0.00" endPos="169.27" name="شهید بهشتی" friendlyPos="1">
        <access lane="461899397#3_0" pos="1.62" length="18.08" friendlyPos="1"/>
        <access lane="474193699_0" pos="148.72" length="4.59" friendlyPos="1"/>
    </busStop>
    <busStop id="-5188238058" lane="-278822219#5_0" startPos="1962.16" endPos="2074.00" name="شهید بهشتی" friendlyPos="1">
        <access lane="-677820656#0_0" pos="64.56" length="5.38" friendlyPos="1"/>
        <access lane="454557470#1_0" pos="158.86" length="52.81" friendlyPos="1"/>
        <access lane="677820656#0_0" pos="31.49" length="10.18" friendlyPos="1"/>
        <access lane="819140281#11_0" pos="157.78" length="54.52" friendlyPos="1"/>
        <access lane="819140281#12_0" pos="9.88" length="57.54" friendlyPos="1"/>
    </busStop>
    <busStop id="-5190423567" lane="-720467066#1_0" startPos="1650.38" endPos="1850.38" name="شهدای هفت تیر" friendlyPos="1">
        <access lane="524694607#2_0" pos="15.17" length="21.79" friendlyPos="1"/>
        <access lane="671098025#0_0" pos="12.93" length="20.85" friendlyPos="1"/>
        <access lane="671723743_0" pos="25.45" length="11.82" friendlyPos="1"/>
        <access lane="844145876#13_0" pos="9.67" length="30.66" friendlyPos="1"/>
    </busStop>
    <busStop id="-5190555599" lane="-445967481#0_0" startPos="505.44" endPos="705.44" name="زمزم" friendlyPos="1">
        <access lane="409708228#0_0" pos="150.31" length="97.19" friendlyPos="1"/>
        <access lane="445962919_0" pos="38.96" length="113.17" friendlyPos="1"/>
        <access lane="445967482_0" pos="52.25" length="13.06" friendlyPos="1"/>
        <access lane="817331897_0" pos="54.16" length="60.86" friendlyPos="1"/>
    </busStop>
    <busStop id="-5194022128" lane="-24542633#4_0" startPos="170.55" endPos="370.55" name="تپه سفید" friendlyPos="1">
        <access lane="522108253#0_0" pos="48.20" length="56.90" friendlyPos="1"/>
        <access lane="526483919_0" pos="272.66" length="61.02" friendlyPos="1"/>
        <access lane="536075428#1_0" pos="74.12" length="53.82" friendlyPos="1"/>
    </busStop>
    <busStop id="-5604726852" lane="-586649530_0" startPos="130.62" endPos="330.62" name="ارم سبز" friendlyPos="1">
        <access lane="456927783_0" pos="0.20" length="60.65" friendlyPos="1"/>
        <access lane="456933735_0" pos="17.91" length="61.15" friendlyPos="1"/>
    </busStop>
    <busStop id="-5604726870" lane="-586649533_0" startPos="70.16" endPos="270.16" name="ارم سبز" friendlyPos="1">
        <access lane="429345565_0" pos="163.57" length="53.49" friendlyPos="1"/>
        <access lane="456927783_0" pos="0.20" length="81.63" friendlyPos="1"/>
        <access lane="456933733_0" pos="5.43" length="84.27" friendlyPos="1"/>
        <access lane="456933735_0" pos="17.91" length="78.21" friendlyPos="1"/>
        <access lane="456933736_0" pos="0.16" length="78.20" friendlyPos="1"/>
    </busStop>
    <busStop id="-5604726884" lane="-586649546_0" startPos="113.32" endPos="313.32" name="ورزشگاه آزادی" friendlyPos="1">
        <access lane="-189317610#0_0" pos="13.62" length="96.71" friendlyPos="1"/>
        <access lane="-189317610#1_0" pos="108.08" length="104.20" friendlyPos="1"/>
    </busStop>
    <busStop id="-5604726890" lane="-586649547_0" startPos="132.89" endPos="332.89" name="ورزشگاه آزادی" friendlyPos="1">
        <access lane="-189317610#0_0" pos="13.26" length="78.89" friendlyPos="1"/>
        <access lane="-189317610#1_0" pos="108.08" length="82.80" friendlyPos="1"/>
        <access lane="189317610#0_0" pos="0.36" length="74.09" friendlyPos="1"/>
    </busStop>
    <busStop id="-5930756414" lane="-378127816#0_0" startPos="2528.10" endPos="2728.10" name="بعثت" friendlyPos="1">
        <access lane="-463860320#0_0" pos="24.07" length="53.94" friendlyPos="1"/>
        <access lane="-463860320#1_0" pos="85.16" length="74.88" friendlyPos="1"/>
        <access lane="222851822_0" pos="66.43" length="83.49" friendlyPos="1"/>
        <access lane="463860320#0_0" pos="86.02" length="58.74" friendlyPos="1"/>
    </busStop>
    <busStop id="-6066000806" lane="-548613041#0_0" startPos="49.27" endPos="249.27" name="تپه سفید" friendlyPos="1">
        <access lane="522108253#0_0" pos="47.62" length="71.78" friendlyPos="1"/>
        <access lane="526483919_0" pos="272.66" length="46.16" friendlyPos="1"/>
        <access lane="536075428#1_0" pos="74.12" length="39.07" friendlyPos="1"/>
    </busStop>
    <busStop id="-660624203" lane="-720467066#1_0" startPos="589.29" endPos="789.29" name="شهید مفتح" friendlyPos="1">
        <access lane="461899397#12_0" pos="65.99" length="9.73" friendlyPos="1"/>
        <access lane="682383137#24_0" pos="1.44" length="30.37" friendlyPos="1"/>
        <access lane="682383137#25_0" pos="2.76" length="22.12" friendlyPos="1"/>
    </busStop>
    <busStop id="-660627594" lane="-378127816#1_0" startPos="683.86" endPos="883.86" name="میدان شهدا" friendlyPos="1">
        <access lane="717625374_0" pos="5.19" length="62.56" friendlyPos="1"/>
        <access lane="827014820#4_0" pos="49.25" length="10.41" friendlyPos="1"/>
    </busStop>
    <busStop id="-660628303" lane="-448212350#3_0" startPos="432.07" endPos="632.07" name="شهید مدنی" friendlyPos="1">
        <access lane="-439856603#10_0" pos="69.50" length="15.47" friendlyPos="1"/>
        <access lane="439856603#9_0" pos="22.57" length="8.40" friendlyPos="1"/>
    </busStop>
    <busStop id="-660628364" lane="-439856575#4_0" startPos="710.77" endPos="910.77" name="سبلان" friendlyPos="1">
        <access lane="-955960534_0" pos="11.19" length="22.44" friendlyPos="1"/>
        <access lane="594289414#2_0" pos="0.20" length="26.59" friendlyPos="1"/>
        <access lane="594289414#3_0" pos="12.06" length="22.77" friendlyPos="1"/>
        <access lane="594297064_0" pos="17.08" length="11.36" friendlyPos="1"/>
        <access lane="955960534_0" pos="2.50" length="17.64" friendlyPos="1"/>
    </busStop>
    <busStop id="-660628921" lane="-531784904#1_0" startPos="1560.78" endPos="1760.78" name="تهرانپارس" friendlyPos="1">
        <access lane="449717082#3_0" pos="71.62" length="21.09" friendlyPos="1"/>
        <access lane="482804230#10_0" pos="187.73" length="20.91" friendlyPos="1"/>
        <access lane="484554190#9_0" pos="206.71" length="12.73" friendlyPos="1"/>
    </busStop>
    <busStop id="-660637545" lane="-206883215_0" startPos="1110.55" endPos="1302.54" name="شوش" friendlyPos="1">
        <access lane="-476339622_0" pos="145.83" length="226.03" friendlyPos="1"/>
        <access lane="222850253_0" pos="120.25" length="42.80" friendlyPos="1"/>
        <access lane="222850265_0" pos="15.67" length="208.71" friendlyPos="1"/>
        <access lane="330910799_0" pos="148.12" length="215.78" friendlyPos="1"/>
        <access lane="4344235#15_0" pos="152.41" length="223.49" friendlyPos="1"/>
    </busStop>
    <busStop id="-660640664" lane="-664336703#2_0" startPos="0.00" endPos="100.82" name="خیام" friendlyPos="1">
        <access lane="332279292#18_0" pos="4.49" length="2.91" friendlyPos="1"/>
        <access lane="336274075#1_0" pos="0.23" length="11.83" friendlyPos="1"/>
    </busStop>
    <busStop id="-660640714" lane="-206883215_0" startPos="0.00" endPos="135.89" name="میدان محمدیه" friendlyPos="1">
        <access lane="335719635#14_0" pos="137.12" length="71.80" friendlyPos="1"/>
        <access lane="712612528#9_0" pos="59.40" length="62.87" friendlyPos="1"/>
    </busStop>
    <busStop id="-7354135338" lane="-534885337#15_0" startPos="16.36" endPos="27.46" name="سه راه نشاط" friendlyPos="1" lines="225"/>
    <busStop id="-7354135339" lane="-534885337#3_0" startPos="19.19" endPos="34.19" name="دانشگاه" friendlyPos="1" lines="225"/>
    <busStop id="-7354135340" lane="-534885337#0_0" startPos="37.53" endPos="45.03" name="کلانتری" friendlyPos="1" lines="225"/>
    <busStop id="-7366656704" lane="-447188701#2_0" startPos="179.10" endPos="194.10" name="مهمانپذیر" friendlyPos="1" lines="301"/>
    <busStop id="-7439665885" lane="-889217541#0_0" startPos="77.02" endPos="84.52" name="ایستگاه بانک تجارت" friendlyPos="1" lines="301"/>
    <busStop id="-8290610103" lane="-176499895#0_0" startPos="82.05" endPos="89.55" name="ایستگاه مسجد" friendlyPos="1" lines="281"/>
    <busStop id="-8290610104" lane="-176499895#4_0" startPos="83.06" endPos="98.06" name="ایستگاه بهاران" friendlyPos="1" lines="281"/>
    <busStop id="-8324091514" lane="-539299238#2_0" startPos="25.27" endPos="40.27" name="ایستگاه شهید سوادکوهی" friendlyPos="1" lines="301"/>
    <busStop id="-8324091515" lane="-276971317_0" startPos="22.17" endPos="37.17" name="ایستگاه م فرخی یزدی" friendlyPos="1" lines="301"/>
    <busStop id="-8408416806" lane="-36315513#0_0" startPos="0.00" endPos="189.22" name="تهران" friendlyPos="1">
        <access lane="206857439_0" pos="43.87" length="87.44" friendlyPos="1"/>
        <access lane="684898485#0_0" pos="64.34" length="214.36" friendlyPos="1"/>
        <access lane="684898485#1_0" pos="1.48" length="214.27" friendlyPos="1"/>
        <access lane="826941437#0_0" pos="36.86" length="218.11" friendlyPos="1"/>
        <access lane="826941437#1_0" pos="21.15" length="178.81" friendlyPos="1"/>
    </busStop>
    <busStop id="-8408416808" lane="-963740940#0_0" startPos="44.05" endPos="244.05" name="تهران" friendlyPos="1">
        <access lane="206857439_0" pos="56.24" length="87.81" friendlyPos="1"/>
        <access lane="684898485#0_0" pos="64.34" length="195.81" friendlyPos="1"/>
        <access lane="684898485#1_0" pos="1.27" length="195.72" friendlyPos="1"/>
        <access lane="826941437#0_0" pos="36.86" length="199.56" friendlyPos="1"/>
        <access lane="826941437#1_0" pos="21.15" length="160.25" friendlyPos="1"/>
    </busStop>
    <busStop id="-9149513247" lane="-378127816#0_0" startPos="1745.63" endPos="1945.63" name="شهید رضایی" friendlyPos="1">
        <access lane="-613392822#0_0" pos="77.00" length="34.91" friendlyPos="1"/>
        <access lane="463201550#3_0" pos="35.36" length="8.24" friendlyPos="1"/>
        <access lane="613392824#23_0" pos="16.08" length="29.62" friendlyPos="1"/>
    </busStop>
    <busStop id="100_0" lane="4354825#5_0" startPos="19.70" endPos="29.70"/>
    <busStop id="100_1" lane="4354825#2_0" startPos="19.05" endPos="29.05" friendlyPos="1"/>
    <busStop id="101_0" lane="28341570#1_0" startPos="249.57" endPos="259.57"/>
    <busStop id="101_1" lane="4816112#4_0" startPos="10.38" endPos="20.38"/>
    <busStop id="102_0" lane="162316663#1_0" startPos="89.33" endPos="99.33"/>
    <busStop id="102_1" lane="162316972#1_0" startPos="68.13" endPos="78.13"/>
    <busStop id="103_0" lane="164595010_0" startPos="200.05" endPos="210.05" friendlyPos="1"/>
    <busStop id="103_1" lane="162316970_0" startPos="10.05" endPos="20.05"/>
    <busStop id="104_0" lane="151931018#3_0" startPos="42.69" endPos="52.69"/>
    <busStop id="104_1" lane="686516034#4_0" startPos="37.45" endPos="47.45"/>
    <busStop id="105_0" lane="151931018#6_0" startPos="110.17" endPos="120.17" friendlyPos="1"/>
    <busStop id="105_1" lane="686516034#1_0" startPos="11.05" endPos="21.05"/>
    <busStop id="106_0" lane="890577570#5_0" startPos="4.75" endPos="14.75"/>
    <busStop id="106_1" lane="902253530#2_0" startPos="148.42" endPos="158.42" friendlyPos="1"/>
    <busStop id="107_0" lane="688517974#0_0" startPos="396.58" endPos="406.58"/>
    <busStop id="107_1" lane="902681569#4_0" startPos="292.29" endPos="302.29"/>
    <busStop id="108_0" lane="895975294#3_0" startPos="15.02" endPos="25.02" friendlyPos="1"/>
    <busStop id="108_1" lane="902681569#0_0" startPos="14.41" endPos="24.41" friendlyPos="1"/>
    <busStop id="109_0" lane="890577571#2_0" startPos="9.10" endPos="19.10"/>
    <busStop id="109_1" lane="58377373#5_0" startPos="38.89" endPos="48.89"/>
    <busStop id="10_0" lane="38682895#0_0" startPos="54.03" endPos="64.03"/>
    <busStop id="10_1" lane="210304099#11_0" startPos="9.04" endPos="19.04"/>
    <busStop id="11_0" lane="38682895#2_0" startPos="124.11" endPos="134.11"/>
    <busStop id="11_1" lane="210304099#3_0" startPos="36.92" endPos="46.92"/>
    <busStop id="12_0" lane="210304103_0" startPos="161.45" endPos="171.45"/>
    <busStop id="12_1" lane="210304102_0" startPos="455.66" endPos="470.66" name="شریعتی - سامانه ۱ تندرو" friendlyPos="1"/>
    <busStop id="13_0" lane="280006880#3_0" startPos="12.65" endPos="22.65"/>
    <busStop id="13_1" lane="632174936#0_0" startPos="13.96" endPos="23.96"/>
    <busStop id="141_0" lane="209018585#1_0" startPos="9.57" endPos="19.57"/>